@<TRIPOS>MOLECULE
aspirin.pdb
21 21 1 0 0
SMALL
NO_CHARGES


@<TRIPOS>ATOM
      1 C1          0.8640    0.1890   -0.0550 C.ar      1 MON1        0.0000
      2 C2          1.6900    1.2830   -0.0520 C.ar      1 MON1        0.0000
      3 C3          3.0580    1.1440   -0.0200 C.ar      1 MON1        0.0000
      4 C4          3.6120   -0.1300    0.0170 C.ar      1 MON1        0.0000
      5 C5          2.7570   -1.2120    0.0050 C.ar      1 MON1        0.0000
      6 C6          1.4000   -1.0700   -0.0320 C.ar      1 MON1        0.0000
      7 C7          3.8350    2.4470   -0.0150 C.2       1 MON1        0.0000
      8 O8          3.1950    3.5030   -0.0640 O.2       1 MON1        0.0000
      9 O9          5.2260    2.5400    0.0430 O.3       1 MON1        0.0000
     10 O10         5.0390   -0.2600    0.0700 O.3       1 MON1        0.0000
     11 C11         5.8570   -1.4160    0.2360 C.2       1 MON1        0.0000
     12 O12         5.5020   -2.5870    0.4360 O.2       1 MON1        0.0000
     13 C13         7.3030   -1.1540    0.2020 C.3       1 MON1        0.0000
     14 H14        -0.1280    0.3100   -0.0740 H         1 MON1        0.0000
     15 H15         1.2910    2.2000   -0.0730 H         1 MON1        0.0000
     16 H16         3.1450   -2.1330    0.0240 H         1 MON1        0.0000
     17 H17         0.8060   -1.8740   -0.0420 H         1 MON1        0.0000
     18 H18         5.4970    3.4600    0.0350 H         1 MON1        0.0000
     19 H19         7.8010   -2.0120    0.3250 H         1 MON1        0.0000
     20 H20         7.5450   -0.5200    0.9360 H         1 MON1        0.0000
     21 H21         7.5480   -0.7500   -0.6800 H         1 MON1        0.0000
@<TRIPOS>BOND
     1    1   14 1
     2    1    6 ar
     3    6   17 1
     4    5    6 ar
     5    5   16 1
     6    4    5 ar
     7    4   10 1
     8   11   10 1
     9   11   13 1
    10   21   13 1
    11   20   13 1
    12   19   13 1
    13   11   12 2
    14    3    4 ar
    15    3    7 1
    16    7    9 1
    17   18    9 1
    18    7    8 2
    19    2    3 ar
    20    2   15 1
    21    1    2 ar
@<TRIPOS>SUBSTRUCTURE
     1 MON1       20 RESIDUE           4 A     MON     0 ROOT
